642200
  Marvin  12310717063D          

 14 13  0  0  1  0            999 V2000
    1.4302   -2.1954    0.3991 Cl  0  0  0  0  0  0  0  0  0  0  0  0
   -2.4896    1.0038    0.4153 O   0  0  0  0  0  0  0  0  0  0  0  0
   -0.6383    1.9055    0.6160 O   0  0  0  0  0  0  0  0  0  0  0  0
    0.8946   -0.5149    0.3034 C   0  0  2  0  0  0  0  0  0  0  0  0
   -0.6588   -0.4406    0.3724 C   0  0  0  0  0  0  0  0  0  0  0  0
    1.5076    0.1322   -0.9634 C   0  0  0  0  0  0  0  0  0  0  0  0
   -1.2726    0.8720    0.4681 C   0  0  0  0  0  0  0  0  0  0  0  0
    1.3117   -0.0197    1.1844 H   0  0  0  0  0  0  0  0  0  0  0  0
   -0.9974   -1.0027    1.2475 H   0  0  0  0  0  0  0  0  0  0  0  0
   -1.0647   -0.9457   -0.5088 H   0  0  0  0  0  0  0  0  0  0  0  0
    2.5976    0.0724   -0.9417 H   0  0  0  0  0  0  0  0  0  0  0  0
    1.1499   -0.3634   -1.8682 H   0  0  0  0  0  0  0  0  0  0  0  0
    1.2473    1.1888   -1.0348 H   0  0  0  0  0  0  0  0  0  0  0  0
   -3.0175    0.3076    0.3106 H   0  0  0  0  0  0  0  0  0  0  0  0
  4  1  1  0  0  0  0
  2  7  1  0  0  0  0
  2 14  1  0  0  0  0
  3  7  2  0  0  0  0
  4  5  1  0  0  0  0
  4  6  1  0  0  0  0
  4  8  1  0  0  0  0
  5  7  1  0  0  0  0
  5  9  1  0  0  0  0
  5 10  1  0  0  0  0
  6 11  1  0  0  0  0
  6 12  1  0  0  0  0
  6 13  1  0  0  0  0
M  END
> <PUBCHEM_BONDANNOTATIONS>
4  1  5

$$$$
