20057
  -OEChem-01210914293D

 28 28  0     1  0  0  0  0  0999 V2000
    1.1036   -1.1659    1.5455 C   0  0  1  0  0  0  0  0  0  0  0  0
   -0.0411   -2.0411    2.0603 C   0  0  0  0  0  0  0  0  0  0  0  0
    2.4599   -1.8882    1.6508 C   0  0  0  0  0  0  0  0  0  0  0  0
   -1.3796   -1.2947    2.1622 C   0  0  0  0  0  0  0  0  0  0  0  0
    2.6926   -2.8506    0.4876 C   0  0  0  0  0  0  0  0  0  0  0  0
    0.8077   -0.7139    0.1386 C   0  0  0  0  0  0  0  0  0  0  0  0
    2.6126   -2.1282   -0.8588 C   0  0  0  0  0  0  0  0  0  0  0  0
    1.4928   -1.1348   -0.9337 C   0  0  0  0  0  0  0  0  0  0  0  0
   -1.8425   -0.8771    0.7644 C   0  0  0  0  0  0  0  0  0  0  0  0
   -1.2966   -0.0652    3.0678 C   0  0  0  0  0  0  0  0  0  0  0  0
    1.1956   -0.2753    2.1777 H   0  0  0  0  0  0  0  0  0  0  0  0
   -0.1672   -2.9296    1.4277 H   0  0  0  0  0  0  0  0  0  0  0  0
    0.2160   -2.4151    3.0602 H   0  0  0  0  0  0  0  0  0  0  0  0
    3.2641   -1.1399    1.6495 H   0  0  0  0  0  0  0  0  0  0  0  0
    2.5401   -2.4251    2.6032 H   0  0  0  0  0  0  0  0  0  0  0  0
   -2.1144   -1.9920    2.5841 H   0  0  0  0  0  0  0  0  0  0  0  0
    3.6731   -3.3299    0.5885 H   0  0  0  0  0  0  0  0  0  0  0  0
    1.9466   -3.6542    0.5185 H   0  0  0  0  0  0  0  0  0  0  0  0
    0.1898    0.1587   -0.0253 H   0  0  0  0  0  0  0  0  0  0  0  0
    2.4957   -2.8703   -1.6566 H   0  0  0  0  0  0  0  0  0  0  0  0
    3.5545   -1.5996   -1.0484 H   0  0  0  0  0  0  0  0  0  0  0  0
    1.2983   -0.6762   -1.8992 H   0  0  0  0  0  0  0  0  0  0  0  0
   -1.5518   -1.5697   -0.0308 H   0  0  0  0  0  0  0  0  0  0  0  0
   -2.9418   -0.9201    0.7677 H   0  0  0  0  0  0  0  0  0  0  0  0
   -1.6459    0.1683    0.5163 H   0  0  0  0  0  0  0  0  0  0  0  0
   -2.2993    0.3436    3.2364 H   0  0  0  0  0  0  0  0  0  0  0  0
   -0.8787   -0.3290    4.0449 H   0  0  0  0  0  0  0  0  0  0  0  0
   -0.6907    0.7389    2.6394 H   0  0  0  0  0  0  0  0  0  0  0  0
  1  2  1  0  0  0  0
  1  3  1  0  0  0  0
  1  6  1  0  0  0  0
  1 11  1  0  0  0  0
  2  4  1  0  0  0  0
  2 12  1  0  0  0  0
  2 13  1  0  0  0  0
  3  5  1  0  0  0  0
  3 14  1  0  0  0  0
  3 15  1  0  0  0  0
  4  9  1  0  0  0  0
  4 10  1  0  0  0  0
  4 16  1  0  0  0  0
  5  7  1  0  0  0  0
  5 17  1  0  0  0  0
  5 18  1  0  0  0  0
  6  8  2  0  0  0  0
  6 19  1  0  0  0  0
  7  8  1  0  0  0  0
  7 20  1  0  0  0  0
  7 21  1  0  0  0  0
  8 22  1  0  0  0  0
  9 23  1  0  0  0  0
  9 24  1  0  0  0  0
  9 25  1  0  0  0  0
 10 26  1  0  0  0  0
 10 27  1  0  0  0  0
 10 28  1  0  0  0  0
M  END
> <PUBCHEM_COMPOUND_CID>
20057

> <PUBCHEM_CONFORMER_RMSD>
0.6

> <PUBCHEM_MMFF94_PARTIAL_CHARGES>
0.14
0
0
0
0
-0.29
0.14
-0.29
0
0
0
0
0
0
0
0
0
0
0.15
0
0
0.15
0
0
0
0
0
0

> <PUBCHEM_EFFECTIVE_ROTOR_COUNT>
2.8

> <PUBCHEM_HEAVY_ATOM_COUNT>
10

> <PUBCHEM_ATOM_DEF_STEREO_COUNT>
0

> <PUBCHEM_ATOM_UDEF_STEREO_COUNT>
1

> <PUBCHEM_BOND_DEF_STEREO_COUNT>
0

> <PUBCHEM_BOND_UDEF_STEREO_COUNT>
0

> <PUBCHEM_ISOTOPIC_ATOM_COUNT>
0

> <PUBCHEM_COMPONENT_COUNT>
1

> <PUBCHEM_CACTVS_TAUTO_COUNT>
1

> <PUBCHEM_CONFORMER_ID>
00004E5900000001

> <PUBCHEM_MMFF94_ENERGY>
19.5965

> <PUBCHEM_SHAPE_MULTIPOLES>
4.28
1.53
0.89
0.91
0.25
0.14
-0.21
0.08
-0.31
0.36
1.22
1.5
0.05

> <PUBCHEM_SHAPE_VOLUME>
124

$$$$
