22403
  -OEChem-01210914303D

 39 42  0     1  0  0  0  0  0999 V2000
    3.0077   -2.6459   -1.3758 O   0  0  0  0  0  0  0  0  0  0  0  0
   -1.6789    2.1529   -1.9426 O   0  0  0  0  0  0  0  0  0  0  0  0
   -2.4439    0.4058   -0.5675 O   0  0  0  0  0  0  0  0  0  0  0  0
    3.4782    2.1096   -1.1746 N   0  0  1  0  0  0  0  0  0  0  0  0
    2.4608    1.0566   -0.8676 C   0  0  1  0  0  0  0  0  0  0  0  0
    2.8675   -0.2593   -1.5732 C   0  0  0  0  0  0  0  0  0  0  0  0
    2.6942    0.8957    0.6247 C   0  0  0  0  0  0  0  0  0  0  0  0
    1.0249    1.5108   -1.2174 C   0  0  0  0  0  0  0  0  0  0  0  0
    3.2601    2.8376   -2.4127 C   0  0  0  0  0  0  0  0  0  0  0  0
    3.6001    2.9413    0.0397 C   0  0  0  0  0  0  0  0  0  0  0  0
    0.7819    2.6057   -1.9664 C   0  0  0  0  0  0  0  0  0  0  0  0
    1.8786    3.4742   -2.5174 C   0  0  0  0  0  0  0  0  0  0  0  0
    2.2530   -1.5193   -0.9295 C   0  0  2  0  0  0  0  0  0  0  0  0
    3.2730    1.9853    1.1415 C   0  0  0  0  0  0  0  0  0  0  0  0
    2.4616   -0.3583    1.2871 C   0  0  0  0  0  0  0  0  0  0  0  0
    2.2526   -1.4800    0.5797 C   0  0  0  0  0  0  0  0  0  0  0  0
   -0.1350    0.8109   -0.7031 C   0  0  0  0  0  0  0  0  0  0  0  0
   -0.6227    3.0619   -2.2762 C   0  0  0  0  0  0  0  0  0  0  0  0
   -1.3832    1.1320   -1.0719 C   0  0  0  0  0  0  0  0  0  0  0  0
    3.0340   -2.7212   -2.7927 C   0  0  0  0  0  0  0  0  0  0  0  0
    3.9645   -0.3583   -1.5569 H   0  0  0  0  0  0  0  0  0  0  0  0
    2.5937   -0.1962   -2.6349 H   0  0  0  0  0  0  0  0  0  0  0  0
    3.3949    2.1424   -3.2516 H   0  0  0  0  0  0  0  0  0  0  0  0
    4.0338    3.6037   -2.5453 H   0  0  0  0  0  0  0  0  0  0  0  0
    4.6254    3.3116    0.1340 H   0  0  0  0  0  0  0  0  0  0  0  0
    2.9054    3.7874    0.0685 H   0  0  0  0  0  0  0  0  0  0  0  0
    1.8670    4.4310   -1.9810 H   0  0  0  0  0  0  0  0  0  0  0  0
    1.6809    3.6972   -3.5728 H   0  0  0  0  0  0  0  0  0  0  0  0
    1.2164   -1.6551   -1.2605 H   0  0  0  0  0  0  0  0  0  0  0  0
    3.5736    2.1171    2.1706 H   0  0  0  0  0  0  0  0  0  0  0  0
    2.4927   -0.3930    2.3709 H   0  0  0  0  0  0  0  0  0  0  0  0
    2.0712   -2.4112    1.1096 H   0  0  0  0  0  0  0  0  0  0  0  0
   -0.0002    0.0005    0.0006 H   0  0  0  0  0  0  0  0  0  0  0  0
   -0.8220    4.0044   -1.7531 H   0  0  0  0  0  0  0  0  0  0  0  0
   -0.7148    3.2569   -3.3505 H   0  0  0  0  0  0  0  0  0  0  0  0
    3.3428   -3.7358   -3.0630 H   0  0  0  0  0  0  0  0  0  0  0  0
    2.0461   -2.5465   -3.2317 H   0  0  0  0  0  0  0  0  0  0  0  0
    3.7783   -2.0403   -3.2155 H   0  0  0  0  0  0  0  0  0  0  0  0
   -3.2419    0.7991   -0.9618 H   0  0  0  0  0  0  0  0  0  0  0  0
  1 13  1  0  0  0  0
  1 20  1  0  0  0  0
  2 18  1  0  0  0  0
  2 19  1  0  0  0  0
  3 19  1  0  0  0  0
  3 39  1  0  0  0  0
  4  5  1  0  0  0  0
  4  9  1  0  0  0  0
  4 10  1  0  0  0  0
  5  6  1  0  0  0  0
  5  7  1  0  0  0  0
  5  8  1  0  0  0  0
  6 13  1  0  0  0  0
  6 21  1  0  0  0  0
  6 22  1  0  0  0  0
  7 14  2  0  0  0  0
  7 15  1  0  0  0  0
  8 11  2  0  0  0  0
  8 17  1  0  0  0  0
  9 12  1  0  0  0  0
  9 23  1  0  0  0  0
  9 24  1  0  0  0  0
 10 14  1  0  0  0  0
 10 25  1  0  0  0  0
 10 26  1  0  0  0  0
 11 12  1  0  0  0  0
 11 18  1  0  0  0  0
 12 27  1  0  0  0  0
 12 28  1  0  0  0  0
 13 16  1  0  0  0  0
 13 29  1  0  0  0  0
 14 30  1  0  0  0  0
 15 16  2  0  0  0  0
 15 31  1  0  0  0  0
 16 32  1  0  0  0  0
 17 19  2  0  0  0  0
 17 33  1  0  0  0  0
 18 34  1  0  0  0  0
 18 35  1  0  0  0  0
 20 36  1  0  0  0  0
 20 37  1  0  0  0  0
 20 38  1  0  0  0  0
M  END
> <PUBCHEM_COMPOUND_CID>
22403

> <PUBCHEM_CONFORMER_RMSD>
0.6

> <PUBCHEM_MMFF94_PARTIAL_CHARGES>
-0.56
-0.36
-0.53
-0.81
0.55
0
-0.14
-0.14
0.27
0.41
-0.28
0.14
0.42
-0.29
-0.15
-0.29
-0.15
0.42
0.15
0.28
0
0
0
0
0
0
0
0
0
0.15
0.15
0.15
0.15
0
0
0
0
0
0.45

> <PUBCHEM_EFFECTIVE_ROTOR_COUNT>
2.4

> <PUBCHEM_HEAVY_ATOM_COUNT>
20

> <PUBCHEM_ATOM_DEF_STEREO_COUNT>
2

> <PUBCHEM_ATOM_UDEF_STEREO_COUNT>
0

> <PUBCHEM_BOND_DEF_STEREO_COUNT>
0

> <PUBCHEM_BOND_UDEF_STEREO_COUNT>
0

> <PUBCHEM_ISOTOPIC_ATOM_COUNT>
0

> <PUBCHEM_COMPONENT_COUNT>
1

> <PUBCHEM_CACTVS_TAUTO_COUNT>
1

> <PUBCHEM_CONFORMER_ID>
0000578300000001

> <PUBCHEM_MMFF94_ENERGY>
53.9318

> <PUBCHEM_SHAPE_MULTIPOLES>
4.6
3.26
1.91
-0.15
-3.19
1.32
-1.72
-4.41
2.37
3.67
6.73
-2.66
-9.27

> <PUBCHEM_SHAPE_VOLUME>
206

$$$$
